
**** 04/04/12 21:07:02 ******* PSpice 10.3.0 (Jan 2004) ******* ID# 1111111111 
 * SPICE MODEL INCLUDE FILE


 ****     CIRCUIT DESCRIPTION


******************************************************************************



*


*zener diode subcircuit
.subckt zener_diode 1 4
Dforward 1 2 Dideal
Dreverse 4 1 1mA_diode
VZ0 2 3 DC 17V
Rz 3 4 6
*diode model statements
.model 1mA_diode D (Is=100pA n=1.679)

.ends zener_diode

** Main Circuit **
* ac line voltage
Vac 1 0 sin(0 169.7V 60Hz)
Rs 1 2 1
Lp 2 0 70mH
Ls 3 0 1mH
K12 Lp Ls .999999

*rectifier diode
D1 3 4 D1N4148
C 4 0 100uF
R1 4 5 494
XZ1 5 0 zener_diode

* Ideal Diode Model
.model Dideal D   (Is=100pA n=0.01 )
*
* D14148 Rectifier Diode
.model D1N4148  D (Is=5.84n N=1.94 Rs=.7017 Ikf=44.17m Xti=3 Eg=1.11 Cjo=.95p
+                  M=.55 Vj=.75 Fc=.5 Isr=11.07n Nr=2.088 Bv=100 Ibv=100u Tt=11.07n)
*
* CD4007 Discrete NMOS & PMOS

*Analysis Requests
.OPTIONS ITL5 = 0
.TRAN .1ms 1s 0ms 0.5ms UIC

*.plot TRAN V(5,0)
.PROBE
.end

**** 04/04/12 21:07:02 ******* PSpice 10.3.0 (Jan 2004) ******* ID# 1111111111 
 * SPICE MODEL INCLUDE FILE


 ****     Diode MODEL PARAMETERS


******************************************************************************




               Dideal          D1N4148         XZ1.1mA_diode   
          IS  100.000000E-12    5.840000E-09  100.000000E-12 
           N     .01            1.94            1.679        
         ISR                   11.070000E-09                 
          NR                    2.088                        
         IKF                     .04417                      
          BV                  100                            
         IBV                  100.000000E-06                 
          RS                     .7017                       
          TT                   11.070000E-09                 
         CJO                  950.000000E-15                 
          VJ                     .75                         
           M                     .55                         



          JOB CONCLUDED

**** 04/04/12 21:07:02 ******* PSpice 10.3.0 (Jan 2004) ******* ID# 1111111111 
 * SPICE MODEL INCLUDE FILE


 ****     JOB STATISTICS SUMMARY


******************************************************************************



  Total job time (using Solver 1)   =         .14
